# Packages
 &PACKAGES
 useOBCS=.TRUE.,
 useFLT=.TRUE.,
 usePP81=.FALSE.,
 useMNC=.FALSE.,
 &
