# Open-boundaries
 &OBCS_PARM01
 OB_Ieast=1*-1,
 OB_Iwest=1*1,
 useOBCSsponge=.TRUE.
# useOBCSsponge=.FALSE. 
 &

 &OBCS_PARM02
 &

 &OBCS_PARM03
# inverse relax. coef's (seconds)
 Urelaxobcsinner=30000.E0,
 Urelaxobcsbound=7200.E0,
 Vrelaxobcsinner=30000.E0,
 Vrelaxobcsbound=7200.E0,
 spongeThickness=100,
 &

